Version 4
SHEET 1 1748 996
WIRE -1264 -32 -1296 -32
WIRE -1168 -32 -1184 -32
WIRE 480 16 416 16
WIRE -144 48 -192 48
WIRE -32 48 -144 48
WIRE 16 48 -32 48
WIRE 368 48 304 48
WIRE -1296 64 -1296 -32
WIRE -1296 64 -1440 64
WIRE -1264 64 -1296 64
WIRE -1168 64 -1168 -32
WIRE -1168 64 -1184 64
WIRE -1088 64 -1168 64
WIRE -992 64 -1008 64
WIRE -768 64 -912 64
WIRE -144 64 -144 48
WIRE 368 64 368 48
WIRE -1296 96 -1296 64
WIRE -1168 96 -1168 64
WIRE -32 144 -32 48
WIRE 16 144 -32 144
WIRE 336 144 304 144
WIRE 368 144 368 128
WIRE 368 144 336 144
WIRE 416 144 416 16
WIRE 416 144 368 144
WIRE 432 144 416 144
WIRE 528 144 512 144
WIRE 608 144 528 144
WIRE 800 144 608 144
WIRE 912 144 800 144
WIRE 944 144 912 144
WIRE 800 160 800 144
WIRE 944 160 944 144
WIRE -1168 192 -1168 160
WIRE -1072 192 -1168 192
WIRE 608 192 608 144
WIRE -1296 208 -1296 160
WIRE -1168 208 -1168 192
WIRE -144 240 -144 128
WIRE -144 240 -304 240
WIRE -64 240 -144 240
WIRE 16 240 0 240
WIRE 368 240 304 240
WIRE 528 240 528 144
WIRE 528 240 448 240
WIRE 944 256 944 240
WIRE -1440 272 -1440 64
WIRE -1296 320 -1296 288
WIRE -1168 320 -1168 288
WIRE -1168 320 -1296 320
WIRE -992 320 -1168 320
WIRE 336 336 304 336
WIRE 608 336 608 272
WIRE 608 336 336 336
WIRE -1296 352 -1296 320
WIRE -1168 352 -1168 320
WIRE 608 352 608 336
WIRE -304 432 -304 240
WIRE -176 432 -304 432
WIRE -64 432 -112 432
WIRE 16 432 -64 432
WIRE -1168 448 -1168 432
WIRE -1072 448 -1168 448
WIRE -1296 480 -1296 432
WIRE -1168 480 -1168 448
WIRE -48 528 -192 528
WIRE 16 528 -48 528
WIRE 336 528 304 528
WIRE 384 528 336 528
WIRE 528 528 528 240
WIRE 528 528 464 528
WIRE -1440 576 -1440 352
WIRE -1296 576 -1296 544
WIRE -1296 576 -1440 576
WIRE -1264 576 -1296 576
WIRE -1168 576 -1168 544
WIRE -1168 576 -1184 576
WIRE -1088 576 -1168 576
WIRE -992 576 -1008 576
WIRE -768 576 -912 576
WIRE -192 576 -192 528
WIRE -1296 688 -1296 576
WIRE -1280 688 -1296 688
WIRE -1168 688 -1168 576
WIRE -1168 688 -1200 688
WIRE -304 752 -304 432
WIRE -192 752 -192 656
WIRE -192 752 -304 752
WIRE 160 752 160 576
WIRE 160 752 -192 752
WIRE 352 752 160 752
WIRE 608 752 608 432
WIRE 608 752 352 752
WIRE 800 752 800 384
WIRE 800 752 608 752
WIRE 944 752 944 256
WIRE 944 752 800 752
FLAG 912 144 OUT
FLAG 336 528 PG
FLAG 336 336 FB
FLAG 336 144 SW
FLAG -48 528 RT
FLAG -64 432 TRSS
FLAG -1072 192 V1
FLAG -992 320 0
FLAG -1072 448 V2
FLAG -768 64 Terminal+
FLAG -768 576 Terminal-
FLAG -192 48 Terminal+
FLAG 352 752 Terminal-
FLAG 944 256 Terminal-
FLAG 544 16 0
FLAG 1008 752 0
SYMBOL ind 416 160 R270
WINDOW 0 32 56 VTop 2
WINDOW 3 5 56 VBottom 2
SYMATTR InstName L1
SYMATTR Value 33µ
SYMATTR SpiceLine Rser=1
SYMBOL res 592 336 R0
SYMATTR InstName R1
SYMATTR Value 301k
SYMBOL res -208 560 R0
SYMATTR InstName R2
SYMATTR Value 18,2k
SYMBOL res 480 512 R90
WINDOW 0 0 56 VBottom 2
WINDOW 3 32 56 VTop 2
SYMATTR InstName R3
SYMATTR Value 100k
SYMBOL res 592 176 R0
SYMATTR InstName R4
SYMATTR Value 1.62Meg
SYMBOL res 928 144 R0
SYMATTR InstName Rload
SYMATTR Value 200
SYMBOL LT8618 160 240 R0
SYMATTR InstName U1
SYMBOL cap 352 64 R0
SYMATTR InstName C2
SYMATTR Value 47n
SYMBOL cap 0 224 R90
WINDOW 0 0 32 VBottom 2
WINDOW 3 32 32 VTop 2
SYMATTR InstName C3
SYMATTR Value 1µ
SYMBOL cap -1312 96 R0
SYMATTR InstName C1
SYMATTR Value 8µ
SYMBOL res -1312 192 R0
SYMATTR InstName R5
SYMATTR Value 5
SYMBOL cap -1184 96 R0
SYMATTR InstName C4
SYMATTR Value 250n
SYMBOL ind -1168 48 R90
WINDOW 0 5 56 VBottom 2
WINDOW 3 32 56 VTop 2
SYMATTR InstName L2
SYMATTR Value 50µ
SYMBOL ind -992 48 R90
WINDOW 0 5 56 VBottom 2
WINDOW 3 32 56 VTop 2
SYMATTR InstName L3
SYMATTR Value 900n
SYMBOL res -1184 192 R0
SYMATTR InstName R6
SYMATTR Value 50
SYMBOL cap -1312 544 M180
WINDOW 0 24 56 Left 2
WINDOW 3 24 8 Left 2
SYMATTR InstName C5
SYMATTR Value 8µ
SYMBOL res -1312 448 M180
WINDOW 0 36 76 Left 2
WINDOW 3 36 40 Left 2
SYMATTR InstName R7
SYMATTR Value 5
SYMBOL cap -1184 544 M180
WINDOW 0 24 56 Left 2
WINDOW 3 24 8 Left 2
SYMATTR InstName C6
SYMATTR Value 250n
SYMBOL ind -1168 592 M270
WINDOW 0 32 56 VTop 2
WINDOW 3 5 56 VBottom 2
SYMATTR InstName L4
SYMATTR Value 50µ
SYMBOL ind -992 592 M270
WINDOW 0 32 56 VTop 2
WINDOW 3 5 56 VBottom 2
SYMATTR InstName L5
SYMATTR Value 900n
SYMBOL res -1184 448 M180
WINDOW 0 36 76 Left 2
WINDOW 3 36 40 Left 2
SYMATTR InstName R8
SYMATTR Value 50
SYMBOL voltage -1440 256 R0
WINDOW 123 0 0 Left 0
WINDOW 39 0 0 Left 0
SYMATTR InstName V2
SYMATTR Value 12
SYMBOL res -896 48 R90
WINDOW 0 0 56 VBottom 2
WINDOW 3 32 56 VTop 2
SYMATTR InstName R9
SYMATTR Value 1m
SYMBOL res -896 560 R90
WINDOW 0 0 56 VBottom 2
WINDOW 3 32 56 VTop 2
SYMATTR InstName R10
SYMATTR Value 1m
SYMBOL cap -112 416 R90
WINDOW 0 0 32 VBottom 2
WINDOW 3 32 32 VTop 2
SYMATTR InstName C9
SYMATTR Value 10n
SYMBOL res -1168 -48 R90
WINDOW 0 0 56 VBottom 2
WINDOW 3 32 56 VTop 2
SYMATTR InstName R11
SYMATTR Value 1k
SYMBOL res -1184 672 R90
WINDOW 0 0 56 VBottom 2
WINDOW 3 32 56 VTop 2
SYMATTR InstName R12
SYMATTR Value 1k
SYMBOL cap -160 64 R0
SYMATTR InstName C7
SYMATTR Value 22µ
SYMBOL cap 544 0 R90
WINDOW 0 0 32 VBottom 2
WINDOW 3 32 32 VTop 2
SYMATTR InstName C10
SYMATTR Value 5p
SYMBOL ind 784 144 R0
SYMATTR InstName L6
SYMATTR Value 0.7n
SYMBOL res 784 224 R0
SYMATTR InstName R13
SYMATTR Value 3.82m
SYMBOL cap 784 320 R0
SYMATTR InstName C8
SYMATTR Value 4.7µ
SYMBOL cap 1008 736 R90
WINDOW 0 0 32 VBottom 2
WINDOW 3 32 32 VTop 2
SYMATTR InstName C11
SYMATTR Value 100p
SYMBOL res 464 224 R90
WINDOW 0 0 56 VBottom 2
WINDOW 3 32 56 VTop 2
SYMATTR InstName R14
SYMATTR Value 1.62Meg
TEXT 608 616 Left 2 !.tran 10m
